/*--------------------------------*- C++ -*----------------------------------*\
| =========                 |                                                 |
| \\      /  F ield         | OpenFOAM: The Open Source CFD Toolbox           |
|  \\    /   O peration     | Version:  2.1.1                                 |
|   \\  /    A nd           | Web:      www.OpenFOAM.org                      |
|    \\/     M anipulation  |                                                 |
\*---------------------------------------------------------------------------*/
FoamFile
{
    version     2.0;
    format      ascii;
    class       dictionary;
    location    "system";
    object      controlDict;
}
// * * * * * * * * * * * * * * * * * * * * * * * * * * * * * * * * * * * * * //

application     implicitFoam;

startFrom       latestTime;

stopAt          endTime;

endTime         0.4; //0.8 1.6;

deltaT          1e-03;

writeControl   	runTime;

writeInterval   0.01;

purgeWrite      0;

writeFormat     ascii;

writePrecision  6;

writeCompression off;

timeFormat      general;

timePrecision   6;

runTimeModifiable true;
// ************************************************************************* //

libs ( "libgroovyBC.so" 
	"libQuemada.so");

/*
functions
{
    fieldAverage1
    {
        type            fieldAverage;
        functionObjectLibs ( "libfieldFunctionObjects.so" );
        enabled         true;
        cleanRestart    true;
        outputControl   timeStep;
//      outputControl   outputTime;
        outputInterval  10;
        fields
        (
            U
            {
                mean        on;
                prime2Mean  off;
                base        time;
            }
            p
            {
                mean        on;
                prime2Mean  off;
                base        time;
            }

            nu
            {
                mean        on;
                prime2Mean  off;
                base        time;
            }

            magWallShearStress
            {
                mean        on;
                prime2Mean  off;
                base        time;
            }
            magWallShearStressGrad
            {
                mean        on;
                prime2Mean  off;
                base        time;
            }

        );
    }
}

*/
