/*--------------------------------*- C++ -*----------------------------------*\
| =========                 |                                                 |
| \\      /  F ield         | OpenFOAM: The Open Source CFD Toolbox           |
|  \\    /   O peration     | Version:  2.1.1                                 |
|   \\  /    A nd           | Web:      www.OpenFOAM.org                      |
|    \\/     M anipulation  |                                                 |
\*---------------------------------------------------------------------------*/
FoamFile
{
    version     2.0;
    format      ascii;
    class       volVectorField;
    object      U;
}
// * * * * * * * * * * * * * * * * * * * * * * * * * * * * * * * * * * * * * //

dimensions      [0 1 -1 0 0 0 0];

internalField   uniform (0 0 0);

boundaryField
{
    WALL
    {
        type            fixedValue;
        value           uniform (0 0 0);
    }

    INLET
    {
        type            groovyBC;
	// CC is the cardiac cycle, area is in metres ^2
	// Qm is in ml per minute !!!!!!!
	variables "Qm=82.0876;CC=1.0374;PI=3.14159;cubicMeterPerSecond2mlPerMin=6e+07;Area=9.01669e-06;centroid=sum(pos()*mag(Sf()))/sum(mag(Sf()));coordi=pos() - centroid;profile=-normal();";
	//valueExpression "(Qm-2.83586*cos((1*2*PI/CC)*time())+1.13367*sin((1*2*PI/CC)*time())-1.09937*cos((2*2*PI/CC)*time())-0.85915*sin((2*2*PI/CC)*time())+0.70761*cos((3*2*PI/CC)*time())-1.04898*sin((3*2*PI/CC)*time())+0.48890*cos((4*2*PI/CC)*time())+0.71584*sin((4*2*PI/CC)*time())-0.29543*cos((5*2*PI/CC)*time())-0.06778*sin((5*2*PI/CC)*time())+0.11454*cos((6*2*PI/CC)*time())+0.22741*sin((6*2*PI/CC)*time())-0.37011*cos((7*2*PI/CC)*time())-0.13848*sin((7*2*PI/CC)*time())+0.23613*cos((8*2*PI/CC)*time())-0.15284*sin((8*2*PI/CC)*time())-0.04670*cos((9*2*PI/CC)*time())+0.08242*sin((9*2*PI/CC)*time())+0.08075*cos((10*2*PI/CC)*time())-0.07041*sin((10*2*PI/CC)*time())+0.00550*cos((11*2*PI/CC)*time())+0.12147*sin((11*2*PI/CC)*time())-0.07736*cos((12*2*PI/CC)*time())-0.03547*sin((12*2*PI/CC)*time())+0.04093*cos((13*2*PI/CC)*time())-0.01490*sin((13*2*PI/CC)*time())-0.03809*cos((14*2*PI/CC)*time())+0.01484*sin((14*2*PI/CC)*time())+0.03868*cos((15*2*PI/CC)*time())-0.05287*sin((15*2*PI/CC)*time()))/cubicMeterPerSecond2mlPerMin/Area*profile";	
	valueExpression "(Qm)/cubicMeterPerSecond2mlPerMin/Area*profile";
	

        value           uniform (0 0 0);
    }

    OUTLET
    {
        type            zeroGradient;
    }

}

// ************************************************************************* //
